Version 4
SHEET 1 1640 680
WIRE 800 48 768 48
WIRE 928 48 880 48
WIRE 1216 48 1184 48
WIRE 1344 48 1296 48
WIRE 256 144 256 112
WIRE 256 144 192 144
WIRE 352 144 352 112
WIRE 352 144 256 144
WIRE 192 160 192 144
WIRE 544 160 448 160
WIRE 640 160 608 160
WIRE 736 160 736 -32
WIRE 736 160 720 160
WIRE 768 160 768 48
WIRE 768 160 736 160
WIRE 800 160 768 160
WIRE 928 176 928 48
WIRE 928 176 864 176
WIRE 944 176 944 -32
WIRE 944 176 928 176
WIRE 960 176 944 176
WIRE 1072 176 1024 176
WIRE 1184 176 1184 48
WIRE 1184 176 1152 176
WIRE 1216 176 1184 176
WIRE 800 192 768 192
WIRE 1344 192 1344 48
WIRE 1344 192 1280 192
WIRE 1408 192 1408 -32
WIRE 1408 192 1344 192
WIRE 1504 192 1408 192
WIRE 1216 208 1184 208
WIRE 192 240 192 224
WIRE 256 240 256 224
WIRE 256 240 192 240
WIRE 256 256 256 240
WIRE 768 272 768 192
WIRE 768 272 720 272
WIRE 1184 272 1184 208
WIRE 1184 272 768 272
FLAG 64 208 0
FLAG 64 128 +5
FLAG 256 32 +5
FLAG 256 256 0
FLAG 352 112 +2.5
FLAG 640 384 signal
FLAG 640 464 0
FLAG 720 272 +2.5
FLAG 832 144 +5
FLAG 832 208 0
FLAG 1248 224 0
FLAG 1248 160 +5
FLAG 128 384 +2.7
FLAG 384 384 +3.3
FLAG 1536 176 +3.3
FLAG 128 464 0
FLAG 384 464 0
FLAG 1536 240 0
FLAG 1504 224 +2.7
FLAG 1568 208 out
FLAG 448 160 signal
FLAG 1408 -32 amp2
FLAG 944 -32 amp1
FLAG 736 -32 amp0
SYMBOL voltage 64 112 R0
WINDOW 123 0 0 Left 2
WINDOW 39 0 0 Left 2
SYMATTR InstName V1
SYMATTR Value 5
SYMBOL res 240 16 R0
SYMATTR InstName R1
SYMATTR Value 10k
SYMATTR SpiceLine tol=1
SYMBOL res 240 128 R0
SYMATTR InstName R2
SYMATTR Value 10k
SYMATTR SpiceLine tol=1
SYMBOL cap 176 160 R0
SYMATTR InstName C1
SYMATTR Value 1µ
SYMBOL Opamps\\LT1818 832 176 R0
SYMATTR InstName U1
SYMBOL Opamps\\LT1818 1248 192 R0
SYMATTR InstName U2
SYMBOL voltage 640 368 R0
WINDOW 123 0 0 Left 2
WINDOW 39 0 0 Left 2
SYMATTR InstName V2
SYMATTR Value SINE(12 0.01 1000k)
SYMBOL cap 608 144 R90
WINDOW 0 0 32 VBottom 2
WINDOW 3 32 32 VTop 2
SYMATTR InstName C2
SYMATTR Value 1µ
SYMBOL res 736 144 R90
WINDOW 0 0 56 VBottom 2
WINDOW 3 32 56 VTop 2
SYMATTR InstName R3
SYMATTR Value 1k
SYMBOL res 896 32 R90
WINDOW 0 0 56 VBottom 2
WINDOW 3 32 56 VTop 2
SYMATTR InstName R4
SYMATTR Value 50k
SYMBOL res 1168 160 R90
WINDOW 0 0 56 VBottom 2
WINDOW 3 32 56 VTop 2
SYMATTR InstName R5
SYMATTR Value 1k
SYMATTR SpiceLine tol=1
SYMBOL res 1312 32 R90
WINDOW 0 0 56 VBottom 2
WINDOW 3 32 56 VTop 2
SYMATTR InstName R6
SYMATTR Value 50k
SYMATTR SpiceLine tol=1
SYMBOL Opamps\\LT1818 1536 208 R0
SYMATTR InstName U3
SYMBOL voltage 128 368 R0
WINDOW 123 0 0 Left 2
WINDOW 39 0 0 Left 2
SYMATTR InstName V3
SYMATTR Value 2.7
SYMBOL voltage 384 368 R0
WINDOW 123 0 0 Left 2
WINDOW 39 0 0 Left 2
SYMATTR InstName V4
SYMATTR Value 3.3
SYMBOL cap 1024 160 R90
WINDOW 0 0 32 VBottom 2
WINDOW 3 32 32 VTop 2
SYMATTR InstName C3
SYMATTR Value 1µ
TEXT 1024 456 Left 2 !.tran 0 0.00001 0 0.000000001
