Version 4
SHEET 1 1176 680
WIRE 736 16 672 16
WIRE 880 16 816 16
WIRE 672 112 672 16
WIRE 736 112 672 112
WIRE 880 128 880 16
WIRE 880 128 800 128
WIRE 944 128 944 -48
WIRE 944 128 880 128
WIRE 1040 128 944 128
WIRE 576 144 400 144
WIRE 640 144 640 -48
WIRE 640 144 576 144
WIRE 736 144 640 144
WIRE 576 176 576 144
WIRE 672 176 672 112
FLAG -16 144 +5
FLAG 768 96 +5
FLAG 1072 80 +5
FLAG 768 160 -5
FLAG 1072 144 -5
FLAG 80 144 -5
FLAG 176 144 signal
FLAG 400 144 signal
FLAG 1104 112 out
FLAG -16 224 0
FLAG 80 224 0
FLAG 176 224 0
FLAG 672 256 0
FLAG 1040 96 0
FLAG 944 -48 amp1
FLAG 640 -48 amp0
SYMBOL voltage -16 128 R0
WINDOW 123 0 0 Left 2
WINDOW 39 0 0 Left 2
SYMATTR InstName V1
SYMATTR Value 5
SYMBOL voltage 80 128 R0
WINDOW 123 0 0 Left 2
WINDOW 39 0 0 Left 2
SYMATTR InstName V2
SYMATTR Value -5
SYMBOL voltage 176 128 R0
WINDOW 123 0 0 Left 2
WINDOW 39 0 0 Left 2
SYMATTR InstName V3
SYMATTR Value SINE(0 0.01 10k)
SYMBOL Opamps\\LT1818 768 128 R0
SYMATTR InstName U1
SYMBOL Opamps\\LT1818 1072 112 R0
SYMATTR InstName U2
SYMBOL res 832 0 R90
WINDOW 0 0 56 VBottom 2
WINDOW 3 32 56 VTop 2
SYMATTR InstName R2
SYMATTR Value 50k
SYMBOL res 656 160 R0
SYMATTR InstName R3
SYMATTR Value 1k
TEXT -50 280 Left 2 !.tran 0 0.001 0 0.0000001
