Version 4
SHEET 1 1824 680
WIRE 1024 -144 1024 -224
WIRE 1024 -144 736 -144
WIRE 496 -96 48 -96
WIRE 496 -64 496 -96
WIRE 368 48 320 48
WIRE 496 48 496 16
WIRE 496 48 448 48
WIRE 528 48 496 48
WIRE 608 48 608 -48
WIRE 608 48 592 48
WIRE 624 48 608 48
WIRE 688 48 688 -48
WIRE 736 48 736 -144
WIRE 736 48 688 48
WIRE 320 80 320 48
WIRE 496 80 496 48
WIRE 432 128 384 128
WIRE 48 144 48 -96
WIRE 48 544 48 224
WIRE 304 544 48 544
WIRE 496 544 496 176
WIRE 496 544 304 544
WIRE 304 624 304 544
FLAG 304 624 0
FLAG 1024 -224 noise
SYMBOL Misc\\battery 48 128 R0
WINDOW 123 0 0 Left 2
WINDOW 39 0 0 Left 2
SYMATTR InstName V1
SYMATTR Value 20
SYMBOL npn 432 80 R0
SYMATTR InstName Q1
SYMBOL res 480 -80 R0
SYMATTR InstName R3
SYMATTR Value 3k
SYMBOL npn 384 176 R180
SYMATTR InstName Q2
SYMBOL res 464 32 R90
WINDOW 0 0 56 VBottom 2
WINDOW 3 32 56 VTop 2
SYMATTR InstName R1
SYMATTR Value 2k
SYMBOL Digital\\inv 624 -16 R0
SYMATTR InstName A1
SYMBOL polcap 528 64 R270
WINDOW 0 32 32 VTop 2
WINDOW 3 0 32 VBottom 2
SYMATTR InstName C1
SYMATTR Value 0.1µ
SYMBOL res 704 -64 R90
WINDOW 0 0 56 VBottom 2
WINDOW 3 32 56 VTop 2
SYMATTR InstName R2
SYMATTR Value 2
TEXT -240 296 Left 2 !.tran 0 0.0001 0 0.00000001
